Circuit: * C:\Users\Christiaan\OneDrive - Stellenbosch University\E-design\344\E344\A2\LTSpice\E344_22546448_A2.asc

Direct Newton iteration failed to find .op point.  (Use ".option noopiter" to skip.)
Starting Gmin stepping
Gmin = 10
Gmin = 1.07374
Gmin = 0.115292
Gmin = 0.0123794
Gmin = 0.00132923
Gmin = 0.000142725
Gmin = 1.5325e-005
Gmin = 1.6455e-006
Gmin = 1.76685e-007
vernier = 0.5
vernier = 0.25
vernier = 0.125
Gmin = 4.63168e-008
vernier = 0.0625
vernier = 0.03125
vernier = 0.015625
vernier = 0.0078125
vernier = 0.00390625
vernier = 0.00195313
vernier = 0.000976563
vernier = 0.000488281
Gmin = 0
Gmin stepping failed

Starting source stepping with srcstepmethod=0
Source Step = 3.0303%
vernier = 0.25
Source Step = 0.0177557%
Source Step = 0.0473485%
Source Step = 0.0769413%
Source Step = 0.106534%
Source Step = 0.136127%
vernier = 0.00146484
Source Step = 0.170159%
Source Step = 0.214548%
Source Step = 0.258937%
Source Step = 0.303326%
Source Step = 0.347715%
vernier = 0.00219727
Source Step = 0.396544%
Source Step = 0.463127%
Source Step = 0.529711%
Source Step = 0.596295%
Source Step = 0.662879%
vernier = 0.0032959
Source Step = 0.732792%
Source Step = 0.832667%
Source Step = 0.932543%
Source Step = 1.03242%
Source Step = 1.13229%
Source Step = 1.23217%
vernier = 0.00494385
Source Step = 1.38198%
Source Step = 1.5318%
Source Step = 1.68161%
Source Step = 1.83142%
Source Step = 1.98124%
vernier = 0.00741577
Source Step = 2.19847%
Source Step = 2.42319%
Source Step = 2.64791%
Source Step = 2.87263%
Source Step = 3.09735%
vernier = 0.0111237
Source Step = 3.41196%
Source Step = 3.74904%
Source Step = 4.08612%
Source Step = 4.4232%
Source Step = 4.76028%
vernier = 0.0166855
Source Step = 5.21534%
Source Step = 5.72096%
Source Step = 6.22658%
Source Step = 6.7322%
Source Step = 7.23782%
vernier = 0.0250282
Source Step = 7.89513%
Source Step = 8.65356%
Source Step = 9.41199%
Source Step = 10.1704%
Source Step = 10.9289%
vernier = 0.0375423
Source Step = 11.8769%
Source Step = 13.0145%
Source Step = 14.1522%
Source Step = 15.2898%
Source Step = 16.4275%
vernier = 0.0563135
Source Step = 17.7927%
Source Step = 19.4991%
Source Step = 21.2056%
Source Step = 22.9121%
Source Step = 24.6185%
vernier = 0.0844703
Source Step = 26.581%
Source Step = 29.1407%
Source Step = 31.7004%
Source Step = 34.2601%
Source Step = 36.8198%
vernier = 0.126705
Source Step = 39.6355%
Source Step = 43.475%
Source Step = 47.3146%
Source Step = 51.1541%
Source Step = 54.9937%
vernier = 0.190058
Source Step = 59.0252%
Source Step = 64.7846%
Source Step = 70.5439%
Source Step = 76.3033%
Source Step = 82.0626%
Source Step = 87.8219%
vernier = 0.285087
Source Step = 91.2843%
Source Step = 91.318%
Source Step = 91.3518%
Source Step = 91.3855%
Source Step = 91.4193%
Source Step = 91.453%
Source Step = 91.4868%
Source Step = 91.5205%
Source Step = 91.5542%
vernier = 0.00167043
Source Step = 91.5981%
Source Step = 91.6487%
Source Step = 91.6994%
Source Step = 91.75%
Source Step = 91.8006%
vernier = 0.00250565
Source Step = 91.8639%
Source Step = 91.9398%
Source Step = 92.0157%
Source Step = 92.0917%
Source Step = 92.1676%
vernier = 0.00375847
Source Step = 92.2587%
Source Step = 92.3726%
Source Step = 92.4865%
Source Step = 92.6004%
Source Step = 92.7143%
vernier = 0.00563771
Source Step = 92.8452%
Source Step = 93.0161%
Source Step = 93.1869%
Source Step = 93.3578%
Source Step = 93.5286%
vernier = 0.00845657
Source Step = 93.7165%
Source Step = 93.9728%
Source Step = 94.229%
Source Step = 94.4853%
Source Step = 94.7416%
vernier = 0.0126848
Source Step = 95.0106%
Source Step = 95.395%
Source Step = 95.7794%
Source Step = 96.1638%
Source Step = 96.5482%
Source Step = 96.9326%
vernier = 0.0190273
Source Step = 97.5092%
Source Step = 98.0858%
Source Step = 98.6623%
Source Step = 99.2389%
Source Step = 99.8155%
vernier = 0.0285409
Source stepping succeeded in finding the operating point.


Date: Sun Aug 22 18:10:40 2021
Total elapsed time: 1.701 seconds.

tnom = 27
temp = 27
method = modified trap
totiter = 15872
traniter = 5531
tranpoints = 2468
accept = 2354
rejected = 114
matrix size = 57
fillins = 59
solver = Normal
Matrix Compiler1: 8.65 KB object code size  1.6/0.9/[0.7]
Matrix Compiler2: 5.93 KB object code size  0.8/1.0/[0.5]

